108

C 1.0155536611739864 0.7882122495138391 4.347690805379471
C 3.6530565312590344 4.382357618954826 13.597550837315802
C 12.033385035383068 10.695929873502841 15.627279471706967
C 7.667598178657418 14.213920316406 5.8401122600671975
C 15.939686795457238 4.453429941988842 13.391992196071135
C 8.338676755000423 1.1404476630115985 7.578163702110045
C 10.940148237542303 16.1799550714894 15.794407156283082
C 7.035648454385039 4.540147049701048 10.31978071670102
C 12.51916524711431 2.408689909495069 6.966080682992345
C 9.135542683198945 6.967388539682816 16.710797013122196
C 9.233488076532517 2.4996517359719927 2.9608939024138667
C 0.2392137672947865 3.06759703687901 8.078987734272873
C 4.264788976124162 0.2085166724448697 12.239961139010452
C 15.074332694098219 8.938842233518693 12.029617127837007
C 5.0198997548070965 2.163368089465038 7.745307075693685
C 14.239726649270173 14.644863230431149 8.003485288897528
C 2.649486217503723 17.696357517927176 3.6913826998421104
C 16.424594216496228 15.560124299566223 15.380592569320099
C 17.80168916249953 5.947387475308702 3.7091040106497646
C 7.4413343359518285 8.33381637859581 10.451856127008721
C 1.5913863655300469 11.300849511392261 1.924387899736592
C 5.3648603683735 16.085921007550493 11.863884006366687
C 1.1207883473962965 3.479368521088679 0.3002364819684784
C 2.6437501140965356 5.043174902955501 17.5504483887662
C 16.03382594153572 4.809239444355623 17.993455187065383
C 7.611798909707222 1.9827679427611307 16.61232664783977
C 16.081927907044378 9.865886070759412 6.965029538400895
C 8.67263708024574 6.959921771886392 2.1139543846277267
C 0.7871146146856542 12.849772790599625 13.208778618587942
C 4.042510505468408 7.349637647676706 3.7343100520060513
C 8.675437061472163 1.4508060105641705 12.763471111626483
C 13.781845710121566 14.381443700290033 1.0480335978947515
C 8.818776343941488 13.21115707563673 9.487012694306387
C 13.502217906201995 17.62808383619483 2.1130310487247668
C 3.306556653082602 13.770400376290803 7.012380139908175
C 16.94338363804102 17.349512030285993 9.855970350756763
C 14.19958958798292 0.7858841040589812 11.832159302322031
C 16.70801488045046 4.446115849717771 0.16412157876455513
C 14.05005566230984 7.4170027077075895 2.5158630882127846
C 6.128569388505083 10.627079277554646 5.74507124536863
C 17.20106764307707 10.485222193169875 2.914283877141851
C 12.40871102808642 8.429408144797222 7.652799115813455
C 13.376836153316097 0.6664410762709978 0.21365272795015056
C 17.89953442963795 0.5014816078021294 6.840143641056377
C 17.849021369184797 17.81884604608175 2.701718342028915
C 0.4655211656339435 11.899017911404203 8.819664538299348
C 13.717282710497173 11.679359318929746 4.989977689157217
C 11.488641121808115 14.990288532386028 10.706885021451221
C 6.63709382531842 16.00241314966187 16.50966994272987
C 17.484582030757576 6.535626096465159 9.048070944109046
C 9.82319154032268 11.763350671399273 4.124908785328062
C 1.4840215342590377 16.437944132842436 13.292302896119907
C 1.6555259095937886 16.091371350812377 17.40616601734819
C 7.021101867675152 16.64191810055262 1.0802203767305252
C 2.0988103864662797 4.080525998932631 3.67541071833887
C 0.01534517168016869 7.747037518564574 14.701979604533866
C 0.6546667337917664 15.572159755839536 9.19385364974897
C 17.783405241261036 13.827351329055212 3.830638351958572
C 10.3284422543337 16.160791075841413 6.735664875035102
C 6.920493510664721 11.009396462394674 16.71015717366022
C 0.17019919859475574 2.581749109656262 17.184160980493566
C 4.762086187459817 3.938408205616848 0.14213141211491886
C 3.6996493415544762 5.0414388530959 9.693363890484749
C 14.262996142979919 4.842355244562353 5.300962898055703
C 6.356222735954981 0.8141542103426145 4.064844549690034
C 13.359135708413374 3.8929925371977863 10.530364632288974
C 3.5907114067365278 9.457352566316189 9.496134536374447
C 7.2565471267127695 16.999628789363392 8.261473407000024
C 15.954220338890046 0.8673852185153867 2.7667983572352464
C 12.96304380546517 17.99355622403289 12.571071502696103
C 16.393621989700527 1.42386599519974 15.561127191494498
C 12.816972774174427 11.72759320089306 10.698196894712336
C 4.644039186521124 9.524360605802354 0.2008795295524941
C 7.552359120741903 11.754122465273731 13.376299126639802
C 4.611534706706368 9.829951889647312 14.039527249021194
C 11.408922032216912 3.5908509821926704 0.5457312998651116
C 11.646265421270556 7.038425210572468 13.965083434121679
C 12.780711448934944 2.372082839790659 16.53289429078463
C 0.3956198467543657 14.344123224406065 3.0825252826489846
C 2.0538587968575683 9.661411729787062 5.6194392427503725
C 10.076538021052976 6.194506333294571 8.838532597948008
C 16.715861072068154 9.139516595909628 16.370605603928798
C 17.597783729538254 12.326394759225792 10.101669382853743
C 5.6152560208426205 6.716741406642858 7.030038654732075
C 16.865211471705997 12.310536911928603 13.686797567868089
C 2.615942141147401 12.441853490148434 17.416242988677993
C 0.2510129253730955 7.396141845353091 10.02090176868954
C 10.809187572019324 9.579979900439577 1.4795436809323474
C 6.126664462216335 12.461489681486595 1.6446900050762128
C 17.310180915679304 13.31220925276407 0.2487377133433768
C 3.9727276200415687 13.01190228292261 10.678285012214896
C 4.1857296421899655 1.4515020961076261 17.90330521247166
C 10.893604625893198 15.238373844699668 2.9029653784977185
C 7.314601160684856 17.396596983397025 4.638269032410158
C 15.512061483166185 16.94988764341427 5.793073244693202
C 7.128758565906941 4.874700179242212 4.563247811568103
C 14.976020222780672 14.746756487183927 11.648534639012833
C 0.6706008673495849 1.1859364360540112 13.437463941170364
C 9.697513767107074 13.318600284193678 0.09059209459027118
C 16.849522797481324 8.036043937574378 0.03206486849309087
C 1.8368286092133432 8.540605517191441 17.782176665884712
C 17.851498055078757 0.25140892400965953 11.214818574503386
C 8.130505842059524 5.115706314058777 13.93453439560438
C 9.06608759237967 17.935761448195983 12.31728342797868
C 1.6099806824473244 17.216334728785846 0.2826668928270524
C 0.08468181743550929 17.764170921911145 6.521709148778134
C 13.186465651707428 7.460353868592616 17.816419933284607
C 5.177163816094494 7.29940561325858 16.51403399871592
