108

C 8.398054253018927 4.549588857626077 2.152705467917258
C 4.962487313896418 3.286451034247875 5.1982055231928825
C 4.789019294039463 3.9006135136514786 4.247889603237127
C 7.040089528054523 0.1129686890199082 1.2058308168961958
C 4.145103149675229 5.35290670941227 2.267592690790579
C 6.632690154016018 4.7403252348303795 1.5741247702389956
C 4.0525229662853235 2.674944397005447 5.049664555830532
C 0.3075361761284512 2.7628319846262457 4.674209464796149
C 5.878688317723572 5.82228684425354 2.6650317311286926
C 4.494050621171482 6.259232885029633 4.22670248139184
C 6.393844196656573 4.489412348601036 4.006365697365254
C 3.4614219665527344 8.308797359466553 5.553074359893799
C 1.110805619508028 7.688875699415803 8.188836757093668
C 3.4101965141962864 1.772122208494693 4.482515019022685
C 0.8062132975835539 7.895309498353981 3.8901863501025673
C 0.07035358753364562 6.08668954449422 0.2867409470875373
C 0.07542025361499327 6.899050745212207 2.6741481327123324
C 0.3944550818996504 2.9410608971957117 2.7437015790492296
C 5.200400419891594 8.943023545823962 1.656556380920847
C 3.7066887174514704 3.6162823407184987 3.82699034120742
C 1.805223339004442 3.163463363889605 3.320827566407388
C 5.963482618331909 8.618059396743774 1.8532385379076004
C 2.0762546005717013 8.660266551771201 3.361976935120765
C 6.342758864164352 7.975897517055273 6.479891270399094
C 1.6151988274650648 4.861782325489912 4.166041505493922
C 3.794102600676524 7.253427633724641 2.0863295983763237
C 2.4238014043003773 7.697898457444694 2.7323467353119497
C 7.648444330669008 1.1672279207850806 5.70573276700452
C 5.1573800103976595 5.777855420724094 5.284082733604052
C 1.0393068103003316 8.510856972421607 2.727469435776584
C 4.161417651921511 4.718780220486224 2.170678407885134
C 3.7637175880372524 5.287686958909035 7.194621038623154
C 4.588771084580685 6.688439306896925 8.385693543087378
C 8.733142279088497 3.324613094329834 1.936919391155243
C 7.376994927995838 7.399736970983213 6.735440812073648
C 7.810469307354651 6.930787399178371 7.736064752389211
C 2.592058722532073 7.071298936984391 6.179264908436323
C 1.5939109213650227 7.052214175462723 8.417778566479683
C 3.6541353464126587 8.50979819521308 8.64670380949974
C 5.986506641168489 6.055659882449618 0.7626510036909622
C 3.8861618296655536 6.6428214916170845 3.327115223525041
C 4.0 8.0 2.0
C 8.374625064439897 8.369186237454414 8.243480522185564
C 2.091616630554199 4.223057806491852 5.231528282165527
C 6.279961862623736 3.553388901724361 3.0471576607600355
C 8.017353035509586 4.988021865487099 7.058814838528633
C 3.607746694702655 0.632973623694852 5.481771896360442
C 1.8175869351252913 8.853892401559278 0.8950071334838867
C 8.024824382813676 5.908614421452512 7.548388399933174
C 5.882977772595211 1.7166584449277167 6.399230868556003
C 7.530190895136911 0.5713859684292402 7.450596759910695
C 1.9777225153757172 2.427568797040294 4.931959738864407
C 5.844315487891436 1.0663503427058458 5.493771128356457
C 6.724476186558604 4.101317882537842 8.792423085076734
C 4.435868366661595 3.5250953201933726 2.1689253862266042
C 6.787458527100171 1.2931396275903353 6.514490540666088
C 8.831070081330836 1.5040413986425847 1.904005495365709
C 7.304215349256992 3.90141786262393 6.512198485434055
C 5.939178727930994 0.8747700834646821 3.643024646677077
C 2.3850368093699217 4.401390436338261 6.7185060158371925
C 1.1716842632740736 3.8328624779824167 1.7604760467074811
C 0.09863967751152813 0.9465400988701731 4.962681300938129
C 0.9853196245385334 3.0781610137200914 7.675608785822988
C 7.196410391759855 0.14078776978385577 2.672149828336842
C 4.487066792251426 4.135432202543598 0.05748082484933548
C 4.028291803901084 5.736825378757203 4.659781561000273
C 3.8546934089406477 0.44267132565838097 0.5342808443575109
C 7.073905332479626 3.801578550832346 4.622296496294439
C 2.3793025612831116 6.450344204902649 2.866401508450508
C 2.6656443991232663 6.533495023613796 6.4602222153916955
C 8.0 6.0 2.0
C 1.3974919319152832 7.753442764282227 6.895266056060791
C 2.627648681795108 3.0918485596994287 0.2793435020430479
C 2.039997043550102 0.3221470224634686 8.148144237104134
C 3.9496800595370587 5.733142027398571 5.309240062255412
C 4.421239929424701 1.9686283114015168 8.11673916062773
C 7.719166337597926 2.7010048991996882 1.1343590751803276
C 6.746039777994156 6.4337466806173325 0.03544294834136963
C 8.770373951643705 4.370599921792746 8.986018896102905
C 8.667492300271988 5.187408283352852 3.8916577622294426
C 6.43438013703053 1.9115565223673912 6.257621692101566
C 3.5999289647952537 7.478176072239876 6.766965847462416
C 0.4813809022307396 4.260668066563085 8.181244610343128
C 0.15075065171965818 5.010849951470334 3.974215631377035
C 5.6498324810527265 6.220122130122036 3.4084301628172398
C 8.060211143509264 0.24053972171373061 3.606377815109454
C 8.87586203229148 1.2506994549185038 6.480165071319789
C 7.667125821113586 3.800162896513939 7.920308291912079
C 3.470620098808922 2.013760861328059 0.474114402624096
C 5.479630410351092 2.103703462285921 7.36148992337985
C 1.8576173782348633 1.1460536941885948 8.56243903003633
C 4.64751623570919 7.188687667250633 7.4135179072618484
C 6.601163248831938 1.0758129519465456 0.8158220579767423
C 2.614754299351148 6.165370609087404 6.937843067185895
C 3.4644351433962584 4.2441497323452495 7.036190882092342
C 4.117270283401012 5.01148909330368 7.8009524662047625
C 0.5906551196239889 0.27562695275992155 7.0007877628086135
C 6.679263161029667 8.465995393693447 4.902347954688594
C 6.491663558597395 0.6724574047167131 2.462156552569219
C 6.8066364992409945 4.2566715478897095 4.144618164747953
C 7.6324582803063095 8.6483713388443 7.322269212454557
C 6.555746584854205 1.3243761406993144 4.1935467801231425
C 3.4784408562409226 2.0279721219658313 4.9552098254580415
C 1.0441166836462799 7.774294297634697 0.09897357349836966
C 1.1892597649712116 7.696956972300541 5.3686601859517395
C 8.249642530936399 7.946835091162939 2.0486680326866917
C 0.45351362228393555 7.253713607788086 2.787726879119873
C 3.7616325155572543 6.766675612124757 2.850238665864648
